/*--------------------------------*- C++ -*----------------------------------*\
| =========                 |                                                 |
| \\      /  F ield         | OpenFOAM: The Open Source CFD Toolbox           |
|  \\    /   O peration     | Version:  v2306                                 |
|   \\  /    A nd           | Website:  www.openfoam.com                      |
|    \\/     M anipulation  |                                                 |
\*---------------------------------------------------------------------------*/
FoamFile
{
    version     2.0;
    format      ascii;
    class       dictionary;
    object      blockMeshDict;
}
// * * * * * * * * * * * * * * * * * * * * * * * * * * * * * * * * * * * * * //

scale   0.001;

vertices
(
    (-20.6 0 -0.5) // vertex 0
    (-20.6 25.4 -0.5) // vertex 1//
    (0 -25.4 -0.5) // vertex 2
    (0 0 -0.5) // vertex 3
    (0 25.4 -0.5) // vertex 4
    (206 -25.4 -0.5) // vertex 5
    (206 0 -0.5) // vertex 6
    (206 25.4 -0.5) // vertex 7
    (290 -16.6 -0.5) // vertex 8 //
    (290 0 -0.5) // vertex 9
    (290 16.6 -0.5) // vertex 10

    (-20.6 0 0.5) // vertex 11
    (-20.6 25.4 0.5) // vertex 12 //
    (0 -25.4 0.5) // vertex 13
    (0 0 0.5) // vertex 14
    (0 25.4 0.5) // vertex 15
    (206 -25.4 0.5) // vertex 16
    (206 0 0.5) // vertex 17
    (206 25.4 0.5) // vertex 18
    (290 -16.6 0.5) // vertex 19 //
    (290 0 0.5) // vertex 20
    (290 16.6 0.5) // vertex 21
);

negY // Trying to figure this out
(
    (2 4 1)
    (1 3 0.3)
);

posY // Trying to figure this out
(
    (1 4 2)
    (2 3 4)
    (2 4 0.25)
);

posYR
(
    (2 1 1)
    (1 1 0.25)
);


blocks // The documation is really unclear here
(
    // vertex # cell_size, vertex # cell_size, vertex # cell_size, vertex # cell_size
    hex (0 3 4 1 11 14 15 12)
    // x = 18 cells , y = 30 cells, z = 1 cells
    (18 30 1)
    simpleGrading (0.5 $posY 1)

    hex (2 5 6 3 13 16 17 14)
    (180 27 1)
    edgeGrading (4 4 4 4 $negY 1 1 $negY 1 1 1 1)

    hex (3 6 7 4 14 17 18 15)
    (180 30 1)
    edgeGrading (4 4 4 4 $posY $posYR $posYR $posY 1 1 1 1)

    hex (5 8 9 6 16 19 20 17)
    (25 27 1)
    simpleGrading (2.5 1 1)

    hex (6 9 10 7 17 20 21 18)
    (25 30 1)
    simpleGrading (2.5 $posYR 1)
);

edges
(
);

boundary
(
    inlet
    {
        type patch;
        faces
        (
            (0 1 12 11)
        );
    }
    outlet
    {
        type patch;
        faces
        (
            (8 9 20 19)
            (9 10 21 20)
        );
    }
    upperWall
    {
        type wall;
        faces
        (
            (1 4 15 12)
            (4 7 18 15)
            (7 10 21 18)
        );
    }
    lowerWall
    {
        type wall;
        faces
        (
            (0 3 14 11)
            (3 2 13 14)
            (2 5 16 13)
            (5 8 19 16)
        );
    }
    frontAndBack
    {
        type empty;
        faces
        (
            (0 3 4 1)
            (2 5 6 3)
            (3 6 7 4)
            (5 8 9 6)
            (6 9 10 7)
            (11 14 15 12)
            (13 16 17 14)
            (14 17 18 15)
            (16 19 20 17)
            (17 20 21 18)
        );
    }
);


// ************************************************************************* //
